dss/Loads.dss
! Base Load definitions
New Load.load_8A Phases=1 Bus1=con_8.1 Conn=wye KV=7.1996 KW=1 KVAR=0.33 Model=1
New Load.load_8B Phases=1 Bus1=con_8.2 Conn=wye KV=7.1996 KW=1 KVAR=0.33 Model=1
New Load.load_8C Phases=1 Bus1=con_8.3 Conn=wye KV=7.1996 KW=1 KVAR=0.33 Model=1

New Load.load_9A Phases=1 Bus1=con_9.1 Conn=wye KV=7.1996 KW=1 KVAR=0.33 Model=1
New Load.load_9B Phases=1 Bus1=con_9.2 Conn=wye KV=7.1996 KW=1 KVAR=0.33 Model=1
New Load.load_9C Phases=1 Bus1=con_9.3 Conn=wye KV=7.1996 KW=1 KVAR=0.33 Model=1

New Load.load_11A Phases=1 Bus1=con_11.1 Conn=wye KV=7.1996 KW=1 KVAR=0.33 Model=1
New Load.load_11B Phases=1 Bus1=con_11.2 Conn=wye KV=7.1996 KW=1 KVAR=0.33 Model=1
New Load.load_11C Phases=1 Bus1=con_11.3 Conn=wye KV=7.1996 KW=1 KVAR=0.33 Model=1

New Load.load_12A Phases=1 Bus1=con_12.1 Conn=wye KV=7.1996 KW=1 KVAR=0.33 Model=1
New Load.load_12B Phases=1 Bus1=con_12.2 Conn=wye KV=7.1996 KW=1 KVAR=0.33 Model=1
New Load.load_12C Phases=1 Bus1=con_12.3 Conn=wye KV=7.1996 KW=1 KVAR=0.33 Model=1

New Load.load_13A Phases=1 Bus1=con_13.1 Conn=wye KV=7.1996 KW=1 KVAR=0.33 Model=1
New Load.load_13B Phases=1 Bus1=con_13.2 Conn=wye KV=7.1996 KW=1 KVAR=0.33 Model=1
New Load.load_13C Phases=1 Bus1=con_13.3 Conn=wye KV=7.1996 KW=1 KVAR=0.33 Model=1

New Load.load_14A Phases=1 Bus1=con_14.1 Conn=wye KV=7.1996 KW=1 KVAR=0.33 Model=1
New Load.load_14B Phases=1 Bus1=con_14.2 Conn=wye KV=7.1996 KW=1 KVAR=0.33 Model=1
New Load.load_14C Phases=1 Bus1=con_14.3 Conn=wye KV=7.1996 KW=1 KVAR=0.33 Model=1

New Load.load_15A Phases=1 Bus1=con_15.1 Conn=wye KV=7.1996 KW=1 KVAR=0.33 Model=1
New Load.load_15B Phases=1 Bus1=con_15.2 Conn=wye KV=7.1996 KW=1 KVAR=0.33 Model=1
New Load.load_15C Phases=1 Bus1=con_15.3 Conn=wye KV=7.1996 KW=1 KVAR=0.33 Model=1